 'MT3D4.00.00'        5023        5021        5018        5020        5008
           0          21           1           1           0           0
           0           0           0           0           0           0
           0           0           0           0
           1           1         136         141           1
 'THKSAT          '
  1.0000000E+30  1.0000000E+30  1.0000000E+30  1.0000000E+30  1.0000000E+30
  1.0000000E+30  1.0000000E+30  1.0000000E+30  1.0000000E+30  1.0000000E+30
  1.0000000E+30  1.0000000E+30  1.0000000E+30  1.0000000E+30  1.0000000E+30
   10.00000       9.999992      1.0000000E+30  1.0000000E+30  1.0000000E+30
  1.0000000E+30  1.0000000E+30  1.0000000E+30  1.0000000E+30  1.0000000E+30
  1.0000000E+30  1.0000000E+30  1.0000000E+30  1.0000000E+30  1.0000000E+30
  1.0000000E+30  1.0000000E+30  1.0000000E+30  1.0000000E+30  1.0000000E+30
  1.0000000E+30  1.0000000E+30  1.0000000E+30  1.0000000E+30  1.0000000E+30
  1.0000000E+30  1.0000000E+30  1.0000000E+30  1.0000000E+30  1.0000000E+30
  1.0000000E+30  1.0000000E+30  1.0000000E+30  1.0000000E+30  1.0000000E+30
  1.0000000E+30  1.0000000E+30  1.0000000E+30  1.0000000E+30  1.0000000E+30
  1.0000000E+30  1.0000000E+30  1.0000000E+30  1.0000000E+30  1.0000000E+30
  1.0000000E+30  1.0000000E+30  1.0000000E+30  1.0000000E+30  1.0000000E+30
  1.0000000E+30  1.0000000E+30  1.0000000E+30  1.0000000E+30  1.0000000E+30
  1.0000000E+30  1.0000000E+30  1.0000000E+30  1.0000000E+30  1.0000000E+30
  1.0000000E+30  1.0000000E+30  1.0000000E+30  1.0000000E+30  1.0000000E+30
  1.0000000E+30  1.0000000E+30  1.0000000E+30  1.0000000E+30  1.0000000E+30
  1.0000000E+30  1.0000000E+30  1.0000000E+30  1.0000000E+30  1.0000000E+30
  1.0000000E+30  1.0000000E+30  1.0000000E+30  1.0000000E+30  1.0000000E+30
  1.0000000E+30  1.0000000E+30  1.0000000E+30  1.0000000E+30  1.0000000E+30
  1.0000000E+30  1.0000000E+30  1.0000000E+30  1.0000000E+30  1.0000000E+30
  1.0000000E+30  1.0000000E+30  1.0000000E+30  1.0000000E+30  1.0000000E+30
  1.0000000E+30  1.0000000E+30  1.0000000E+30  1.0000000E+30  1.0000000E+30
  1.0000000E+30  1.0000000E+30  1.0000000E+30  1.0000000E+30  1.0000000E+30
  1.0000000E+30  1.0000000E+30  1.0000000E+30  1.0000000E+30  1.0000000E+30
  1.0000000E+30  1.0000000E+30  1.0000000E+30  1.0000000E+30  1.0000000E+30
  1.0000000E+30  1.0000000E+30  1.0000000E+30  1.0000000E+30  1.0000000E+30
  1.0000000E+30  1.0000000E+30   6.813507       5.704269       5.711121    
  1.0000000E+30   1.977264       2.195435      1.0000000E+30  0.9783936    
  1.0000000E+30  1.0000000E+30  1.0000000E+30  1.0000000E+30  1.0000000E+30
  1.0000000E+30   9.658272       9.999992       9.999992       10.00001    
  1.0000000E+30  1.0000000E+30  1.0000000E+30  1.0000000E+30  1.0000000E+30
  1.0000000E+30  1.0000000E+30  1.0000000E+30  1.0000000E+30  1.0000000E+30
  1.0000000E+30  1.0000000E+30  1.0000000E+30  1.0000000E+30  1.0000000E+30
  1.0000000E+30  1.0000000E+30  1.0000000E+30  1.0000000E+30  1.0000000E+30
  1.0000000E+30  1.0000000E+30  1.0000000E+30  1.0000000E+30  1.0000000E+30
  1.0000000E+30  1.0000000E+30  1.0000000E+30  1.0000000E+30  1.0000000E+30
  1.0000000E+30  1.0000000E+30  1.0000000E+30  1.0000000E+30  1.0000000E+30
  1.0000000E+30  1.0000000E+30  1.0000000E+30  1.0000000E+30  1.0000000E+30
  1.0000000E+30  1.0000000E+30  1.0000000E+30  1.0000000E+30  1.0000000E+30
  1.0000000E+30  1.0000000E+30  1.0000000E+30  1.0000000E+30  1.0000000E+30
  1.0000000E+30  1.0000000E+30  1.0000000E+30  1.0000000E+30  1.0000000E+30
  1.0000000E+30  1.0000000E+30  1.0000000E+30  1.0000000E+30  1.0000000E+30
  1.0000000E+30  1.0000000E+30  1.0000000E+30  1.0000000E+30  1.0000000E+30
  1.0000000E+30  1.0000000E+30  1.0000000E+30  1.0000000E+30  1.0000000E+30
  1.0000000E+30  1.0000000E+30  1.0000000E+30  1.0000000E+30  1.0000000E+30
  1.0000000E+30  1.0000000E+30  1.0000000E+30  1.0000000E+30  1.0000000E+30
  1.0000000E+30  1.0000000E+30  1.0000000E+30  1.0000000E+30  1.0000000E+30
  1.0000000E+30  1.0000000E+30  1.0000000E+30  1.0000000E+30  1.0000000E+30
  1.0000000E+30  1.0000000E+30  1.0000000E+30  1.0000000E+30  1.0000000E+30
  1.0000000E+30  1.0000000E+30  1.0000000E+30  1.0000000E+30  1.0000000E+30
  1.0000000E+30  1.0000000E+30  1.0000000E+30  1.0000000E+30  1.0000000E+30
  1.0000000E+30  1.0000000E+30  1.0000000E+30  1.0000000E+30  1.0000000E+30
  1.0000000E+30  1.0000000E+30  1.0000000E+30  1.0000000E+30  1.0000000E+30
  1.0000000E+30  1.0000000E+30  1.0000000E+30   7.501968       7.529892    
   4.489883       2.251785       3.701553       3.196335       1.063568    
   1.117203       2.111649      0.6938782      1.0000000E+30  1.0000000E+30
  1.0000000E+30  1.0000000E+30   4.316551       8.460419       10.00000    
   7.000008       5.602089      1.0000000E+30  1.0000000E+30  1.0000000E+30
  1.0000000E+30  1.0000000E+30  1.0000000E+30  1.0000000E+30  1.0000000E+30
  1.0000000E+30  1.0000000E+30  1.0000000E+30  1.0000000E+30  1.0000000E+30
  1.0000000E+30  1.0000000E+30  1.0000000E+30  1.0000000E+30  1.0000000E+30
  1.0000000E+30  1.0000000E+30  1.0000000E+30  1.0000000E+30  1.0000000E+30
  1.0000000E+30  1.0000000E+30  1.0000000E+30  1.0000000E+30  1.0000000E+30
  1.0000000E+30  1.0000000E+30  1.0000000E+30  1.0000000E+30  1.0000000E+30
  1.0000000E+30  1.0000000E+30  1.0000000E+30  1.0000000E+30  1.0000000E+30
  1.0000000E+30  1.0000000E+30  1.0000000E+30  1.0000000E+30  1.0000000E+30
  1.0000000E+30  1.0000000E+30  1.0000000E+30  1.0000000E+30  1.0000000E+30
  1.0000000E+30  1.0000000E+30  1.0000000E+30  1.0000000E+30  1.0000000E+30
  1.0000000E+30  1.0000000E+30  1.0000000E+30  1.0000000E+30  1.0000000E+30
  1.0000000E+30  1.0000000E+30  1.0000000E+30  1.0000000E+30  1.0000000E+30
  1.0000000E+30  1.0000000E+30  1.0000000E+30  1.0000000E+30  1.0000000E+30
  1.0000000E+30  1.0000000E+30  1.0000000E+30  1.0000000E+30  1.0000000E+30
  1.0000000E+30  1.0000000E+30  1.0000000E+30  1.0000000E+30  1.0000000E+30
  1.0000000E+30  1.0000000E+30  1.0000000E+30  1.0000000E+30  1.0000000E+30
  1.0000000E+30  1.0000000E+30  1.0000000E+30  1.0000000E+30  1.0000000E+30
  1.0000000E+30  1.0000000E+30  1.0000000E+30  1.0000000E+30  1.0000000E+30
  1.0000000E+30  1.0000000E+30  1.0000000E+30  1.0000000E+30  1.0000000E+30
  1.0000000E+30  1.0000000E+30  1.0000000E+30  1.0000000E+30  1.0000000E+30
  1.0000000E+30  1.0000000E+30  1.0000000E+30  1.0000000E+30  1.0000000E+30
  1.0000000E+30  1.0000000E+30  1.0000000E+30  1.0000000E+30  1.0000000E+30
  1.0000000E+30  1.0000000E+30  1.0000000E+30  1.0000000E+30   5.827545    
   9.186409       6.954987       5.549088       5.531342       5.204056    
   2.562805       5.337753       5.514343       1.332535      1.0000000E+30
  1.0000000E+30  1.0000000E+30   1.741058       2.758774       4.681961    
   7.000000       5.000000       4.402489       3.001266      1.0000000E+30
  1.0000000E+30  1.0000000E+30  1.0000000E+30  1.0000000E+30  1.0000000E+30
  1.0000000E+30  1.0000000E+30  1.0000000E+30  1.0000000E+30  1.0000000E+30
  1.0000000E+30  1.0000000E+30  1.0000000E+30  1.0000000E+30  1.0000000E+30
  1.0000000E+30  1.0000000E+30  1.0000000E+30  1.0000000E+30  1.0000000E+30
  1.0000000E+30  1.0000000E+30  1.0000000E+30  1.0000000E+30  1.0000000E+30
  1.0000000E+30  1.0000000E+30  1.0000000E+30  1.0000000E+30  1.0000000E+30
  1.0000000E+30  1.0000000E+30  1.0000000E+30  1.0000000E+30  1.0000000E+30
  1.0000000E+30  1.0000000E+30  1.0000000E+30  1.0000000E+30  1.0000000E+30
  1.0000000E+30  1.0000000E+30  1.0000000E+30  1.0000000E+30  1.0000000E+30
  1.0000000E+30  1.0000000E+30  1.0000000E+30  1.0000000E+30  1.0000000E+30
  1.0000000E+30  1.0000000E+30  1.0000000E+30  1.0000000E+30  1.0000000E+30
  1.0000000E+30  1.0000000E+30  1.0000000E+30  1.0000000E+30  1.0000000E+30
  1.0000000E+30  1.0000000E+30  1.0000000E+30  1.0000000E+30  1.0000000E+30
  1.0000000E+30  1.0000000E+30  1.0000000E+30  1.0000000E+30  1.0000000E+30
  1.0000000E+30  1.0000000E+30  1.0000000E+30  1.0000000E+30  1.0000000E+30
  1.0000000E+30  1.0000000E+30  1.0000000E+30  1.0000000E+30  1.0000000E+30
  1.0000000E+30  1.0000000E+30  1.0000000E+30  1.0000000E+30  1.0000000E+30
  1.0000000E+30  1.0000000E+30  1.0000000E+30  1.0000000E+30  1.0000000E+30
  1.0000000E+30  1.0000000E+30  1.0000000E+30  1.0000000E+30  1.0000000E+30
  1.0000000E+30  1.0000000E+30  1.0000000E+30  1.0000000E+30  1.0000000E+30
  1.0000000E+30  1.0000000E+30  1.0000000E+30  1.0000000E+30  1.0000000E+30
  1.0000000E+30  1.0000000E+30  1.0000000E+30  1.0000000E+30  1.0000000E+30
  1.0000000E+30  1.0000000E+30  1.0000000E+30  1.0000000E+30  1.0000000E+30
   7.044998       9.694077       6.973953       4.975632       7.156738    
   6.369843       3.251373       6.894241       6.681198       1.975739    
   1.159149      0.5731354       1.647232       2.239517       4.337456    
   6.780975       6.733162       5.000000       3.000000       3.000000    
   2.343735      1.0000000E+30  1.0000000E+30   2.538460       2.651634    
  1.0000000E+30  1.0000000E+30  1.0000000E+30  1.0000000E+30  1.0000000E+30
  1.0000000E+30  1.0000000E+30  1.0000000E+30  1.0000000E+30  1.0000000E+30
  1.0000000E+30  1.0000000E+30  1.0000000E+30  1.0000000E+30  1.0000000E+30
  1.0000000E+30  1.0000000E+30  1.0000000E+30  1.0000000E+30  1.0000000E+30
  1.0000000E+30  1.0000000E+30  1.0000000E+30  1.0000000E+30  1.0000000E+30
  1.0000000E+30  1.0000000E+30  1.0000000E+30  1.0000000E+30  1.0000000E+30
  1.0000000E+30  1.0000000E+30  1.0000000E+30  1.0000000E+30  1.0000000E+30
  1.0000000E+30  1.0000000E+30  1.0000000E+30  1.0000000E+30  1.0000000E+30
  1.0000000E+30  1.0000000E+30  1.0000000E+30  1.0000000E+30  1.0000000E+30
  1.0000000E+30  1.0000000E+30  1.0000000E+30  1.0000000E+30  1.0000000E+30
  1.0000000E+30  1.0000000E+30  1.0000000E+30  1.0000000E+30  1.0000000E+30
  1.0000000E+30  1.0000000E+30  1.0000000E+30  1.0000000E+30  1.0000000E+30
  1.0000000E+30  1.0000000E+30  1.0000000E+30  1.0000000E+30  1.0000000E+30
  1.0000000E+30  1.0000000E+30  1.0000000E+30  1.0000000E+30  1.0000000E+30
  1.0000000E+30  1.0000000E+30  1.0000000E+30  1.0000000E+30  1.0000000E+30
  1.0000000E+30  1.0000000E+30  1.0000000E+30  1.0000000E+30  1.0000000E+30
  1.0000000E+30  1.0000000E+30  1.0000000E+30  1.0000000E+30  1.0000000E+30
  1.0000000E+30  1.0000000E+30  1.0000000E+30  1.0000000E+30  1.0000000E+30
  1.0000000E+30  1.0000000E+30  1.0000000E+30  1.0000000E+30  1.0000000E+30
  1.0000000E+30  1.0000000E+30  1.0000000E+30  1.0000000E+30  1.0000000E+30
  1.0000000E+30  1.0000000E+30  1.0000000E+30  1.0000000E+30  1.0000000E+30
  1.0000000E+30  1.0000000E+30  1.0000000E+30  1.0000000E+30  1.0000000E+30
  1.0000000E+30   8.026291       7.000000       5.000000       5.000000    
   6.444199       3.692169       4.683792       8.204262       7.223816    
   5.139862       2.018921       1.254913       3.429504       6.953415    
   8.545975       9.999992       6.999992       4.063118       3.103355    
   3.000000       1.735771      0.2522736      0.9332352       1.636955    
   3.502769      1.0000000E+30  1.0000000E+30  1.0000000E+30  1.0000000E+30
  1.0000000E+30  1.0000000E+30  1.0000000E+30  1.0000000E+30  1.0000000E+30
  1.0000000E+30  1.0000000E+30  1.0000000E+30  1.0000000E+30  1.0000000E+30
  1.0000000E+30  1.0000000E+30  1.0000000E+30  1.0000000E+30  1.0000000E+30
  1.0000000E+30  1.0000000E+30  1.0000000E+30  1.0000000E+30  1.0000000E+30
  1.0000000E+30  1.0000000E+30  1.0000000E+30  1.0000000E+30  1.0000000E+30
  1.0000000E+30  1.0000000E+30  1.0000000E+30  1.0000000E+30  1.0000000E+30
  1.0000000E+30  1.0000000E+30  1.0000000E+30  1.0000000E+30  1.0000000E+30
  1.0000000E+30  1.0000000E+30  1.0000000E+30  1.0000000E+30  1.0000000E+30
  1.0000000E+30  1.0000000E+30  1.0000000E+30  1.0000000E+30  1.0000000E+30
  1.0000000E+30  1.0000000E+30  1.0000000E+30  1.0000000E+30  1.0000000E+30
  1.0000000E+30  1.0000000E+30  1.0000000E+30  1.0000000E+30  1.0000000E+30
  1.0000000E+30  1.0000000E+30  1.0000000E+30  1.0000000E+30  1.0000000E+30
  1.0000000E+30  1.0000000E+30  1.0000000E+30  1.0000000E+30  1.0000000E+30
  1.0000000E+30  1.0000000E+30  1.0000000E+30  1.0000000E+30  1.0000000E+30
  1.0000000E+30  1.0000000E+30  1.0000000E+30  1.0000000E+30  1.0000000E+30
  1.0000000E+30  1.0000000E+30  1.0000000E+30  1.0000000E+30  1.0000000E+30
  1.0000000E+30  1.0000000E+30  1.0000000E+30  1.0000000E+30  1.0000000E+30
  1.0000000E+30  1.0000000E+30  1.0000000E+30  1.0000000E+30  1.0000000E+30
  1.0000000E+30  1.0000000E+30  1.0000000E+30  1.0000000E+30  1.0000000E+30
  1.0000000E+30  1.0000000E+30  1.0000000E+30  1.0000000E+30  1.0000000E+30
  1.0000000E+30  1.0000000E+30  1.0000000E+30  1.0000000E+30  1.0000000E+30
  1.0000000E+30  1.0000000E+30   3.771851       4.888229       3.000000    
   3.000000       2.630142      0.9931946       2.126831       5.634262    
   6.321747       4.390137       5.810165       4.757278       6.343521    
   2.978500       2.876266       4.484428       2.542603       1.737198    
   1.374039       3.000000       3.000000       1.362328       2.306717    
   5.448685      0.9328461       2.874039       4.377701       2.718933    
  1.0000000E+30  1.0000000E+30  1.0000000E+30  1.0000000E+30  1.0000000E+30
  1.0000000E+30  1.0000000E+30  1.0000000E+30  1.0000000E+30  1.0000000E+30
  1.0000000E+30  1.0000000E+30  1.0000000E+30  1.0000000E+30  1.0000000E+30
  1.0000000E+30  1.0000000E+30  1.0000000E+30  1.0000000E+30  1.0000000E+30
  1.0000000E+30  1.0000000E+30  1.0000000E+30  1.0000000E+30  1.0000000E+30
  1.0000000E+30  1.0000000E+30  1.0000000E+30  1.0000000E+30  1.0000000E+30
  1.0000000E+30  1.0000000E+30  1.0000000E+30  1.0000000E+30  1.0000000E+30
  1.0000000E+30  1.0000000E+30  1.0000000E+30  1.0000000E+30  1.0000000E+30
  1.0000000E+30  1.0000000E+30  1.0000000E+30  1.0000000E+30  1.0000000E+30
  1.0000000E+30  1.0000000E+30  1.0000000E+30  1.0000000E+30  1.0000000E+30
  1.0000000E+30  1.0000000E+30  1.0000000E+30  1.0000000E+30  1.0000000E+30
  1.0000000E+30  1.0000000E+30  1.0000000E+30  1.0000000E+30  1.0000000E+30
  1.0000000E+30  1.0000000E+30  1.0000000E+30  1.0000000E+30  1.0000000E+30
  1.0000000E+30  1.0000000E+30  1.0000000E+30  1.0000000E+30  1.0000000E+30
  1.0000000E+30  1.0000000E+30  1.0000000E+30  1.0000000E+30  1.0000000E+30
  1.0000000E+30  1.0000000E+30  1.0000000E+30  1.0000000E+30  1.0000000E+30
  1.0000000E+30  1.0000000E+30  1.0000000E+30  1.0000000E+30  1.0000000E+30
  1.0000000E+30  1.0000000E+30  1.0000000E+30  1.0000000E+30  1.0000000E+30
  1.0000000E+30  1.0000000E+30  1.0000000E+30  1.0000000E+30  1.0000000E+30
  1.0000000E+30  1.0000000E+30  1.0000000E+30  1.0000000E+30  1.0000000E+30
  1.0000000E+30  1.0000000E+30  1.0000000E+30  1.0000000E+30  1.0000000E+30
  1.0000000E+30  1.0000000E+30  1.0000000E+30   3.022003       3.229889    
   3.000000       3.000000       3.000000       1.621109      0.7732849    
   3.114563       4.807953       1.928925       5.849457       9.263878    
   9.261421       3.597229      0.1927643      0.1513672      0.3845978    
   4.407806       6.497192       4.363487       2.541222       3.000000    
   3.000000       3.578026       2.794456       4.439522       5.467590    
   4.927078       5.431183       3.356804      1.0000000E+30  1.0000000E+30
  1.0000000E+30  1.0000000E+30  1.0000000E+30  1.0000000E+30  1.0000000E+30
  1.0000000E+30  1.0000000E+30  1.0000000E+30  1.0000000E+30  1.0000000E+30
  1.0000000E+30  1.0000000E+30  1.0000000E+30  1.0000000E+30  1.0000000E+30
  1.0000000E+30  1.0000000E+30  1.0000000E+30  1.0000000E+30  1.0000000E+30
  1.0000000E+30  1.0000000E+30  1.0000000E+30  1.0000000E+30  1.0000000E+30
  1.0000000E+30  1.0000000E+30  1.0000000E+30  1.0000000E+30  1.0000000E+30
  1.0000000E+30  1.0000000E+30  1.0000000E+30  1.0000000E+30  1.0000000E+30
  1.0000000E+30  1.0000000E+30  1.0000000E+30  1.0000000E+30  1.0000000E+30
  1.0000000E+30  1.0000000E+30  1.0000000E+30  1.0000000E+30  1.0000000E+30
  1.0000000E+30  1.0000000E+30  1.0000000E+30  1.0000000E+30  1.0000000E+30
  1.0000000E+30  1.0000000E+30  1.0000000E+30  1.0000000E+30  1.0000000E+30
  1.0000000E+30  1.0000000E+30  1.0000000E+30  1.0000000E+30  1.0000000E+30
  1.0000000E+30  1.0000000E+30  1.0000000E+30  1.0000000E+30  1.0000000E+30
  1.0000000E+30  1.0000000E+30  1.0000000E+30  1.0000000E+30  1.0000000E+30
  1.0000000E+30  1.0000000E+30  1.0000000E+30  1.0000000E+30  1.0000000E+30
  1.0000000E+30  1.0000000E+30  1.0000000E+30  1.0000000E+30  1.0000000E+30
  1.0000000E+30  1.0000000E+30  1.0000000E+30  1.0000000E+30  1.0000000E+30
  1.0000000E+30  1.0000000E+30  1.0000000E+30  1.0000000E+30  1.0000000E+30
  1.0000000E+30  1.0000000E+30  1.0000000E+30  1.0000000E+30  1.0000000E+30
  1.0000000E+30  1.0000000E+30  1.0000000E+30  1.0000000E+30  1.0000000E+30
  1.0000000E+30  1.0000000E+30  1.0000000E+30  1.0000000E+30   3.702347    
   2.408813       1.563187       3.043686       3.000000       3.000008    
   1.290314       2.307144       2.875992       1.650223       7.000008    
   7.000000       5.783264       1.294006      0.3058472      0.6837463    
   2.669945       3.072144       4.471817       1.141907      0.2557373    
   1.465622       3.000000       3.000000       4.449509       1.939232    
  0.9971313       3.909416       4.491997       1.876434      1.0000000E+30
  1.0000000E+30  1.0000000E+30  1.0000000E+30  1.0000000E+30  1.0000000E+30
  1.0000000E+30  1.0000000E+30  1.0000000E+30  1.0000000E+30  1.0000000E+30
  1.0000000E+30  1.0000000E+30  1.0000000E+30  1.0000000E+30  1.0000000E+30
  1.0000000E+30  1.0000000E+30  1.0000000E+30  1.0000000E+30  1.0000000E+30
  1.0000000E+30  1.0000000E+30  1.0000000E+30  1.0000000E+30  1.0000000E+30
  1.0000000E+30  1.0000000E+30  1.0000000E+30  1.0000000E+30  1.0000000E+30
  1.0000000E+30  1.0000000E+30  1.0000000E+30  1.0000000E+30  1.0000000E+30
  1.0000000E+30  1.0000000E+30  1.0000000E+30  1.0000000E+30  1.0000000E+30
  1.0000000E+30  1.0000000E+30  1.0000000E+30  1.0000000E+30  1.0000000E+30
  1.0000000E+30  1.0000000E+30  1.0000000E+30  1.0000000E+30  1.0000000E+30
  1.0000000E+30  1.0000000E+30  1.0000000E+30  1.0000000E+30  1.0000000E+30
  1.0000000E+30  1.0000000E+30  1.0000000E+30  1.0000000E+30  1.0000000E+30
  1.0000000E+30  1.0000000E+30  1.0000000E+30  1.0000000E+30  1.0000000E+30
  1.0000000E+30  1.0000000E+30  1.0000000E+30  1.0000000E+30  1.0000000E+30
  1.0000000E+30  1.0000000E+30  1.0000000E+30  1.0000000E+30  1.0000000E+30
  1.0000000E+30  1.0000000E+30  1.0000000E+30  1.0000000E+30  1.0000000E+30
  1.0000000E+30  1.0000000E+30  1.0000000E+30  1.0000000E+30  1.0000000E+30
  1.0000000E+30  1.0000000E+30  1.0000000E+30  1.0000000E+30  1.0000000E+30
  1.0000000E+30  1.0000000E+30  1.0000000E+30  1.0000000E+30  1.0000000E+30
  1.0000000E+30  1.0000000E+30  1.0000000E+30  1.0000000E+30  1.0000000E+30
  1.0000000E+30  1.0000000E+30  1.0000000E+30  1.0000000E+30  1.0000000E+30
   2.585922       2.309616      0.6583862       3.686440       3.780685    
   3.000008       3.000000       1.511414       2.999992       1.203995    
   5.000008       2.890762       1.490524       1.718353       3.221870    
   1.851288       4.354805       5.422592       3.502251      7.3181152E-02
  0.1350403       1.415321       1.771599       3.000000       3.000000    
   2.557549       2.226295       6.042084       2.955124      0.7286072    
  1.0000000E+30  1.0000000E+30  1.0000000E+30  1.0000000E+30  1.0000000E+30
  1.0000000E+30  1.0000000E+30  1.0000000E+30  1.0000000E+30  1.0000000E+30
  1.0000000E+30  1.0000000E+30  1.0000000E+30  1.0000000E+30  1.0000000E+30
  1.0000000E+30  1.0000000E+30  1.0000000E+30  1.0000000E+30  1.0000000E+30
  1.0000000E+30  1.0000000E+30  1.0000000E+30  1.0000000E+30  1.0000000E+30
  1.0000000E+30  1.0000000E+30  1.0000000E+30  1.0000000E+30  1.0000000E+30
  1.0000000E+30  1.0000000E+30  1.0000000E+30  1.0000000E+30  1.0000000E+30
  1.0000000E+30  1.0000000E+30  1.0000000E+30  1.0000000E+30  1.0000000E+30
  1.0000000E+30  1.0000000E+30  1.0000000E+30  1.0000000E+30  1.0000000E+30
  1.0000000E+30  1.0000000E+30  1.0000000E+30  1.0000000E+30  1.0000000E+30
  1.0000000E+30  1.0000000E+30  1.0000000E+30  1.0000000E+30  1.0000000E+30
  1.0000000E+30  1.0000000E+30  1.0000000E+30  1.0000000E+30  1.0000000E+30
  1.0000000E+30  1.0000000E+30  1.0000000E+30  1.0000000E+30  1.0000000E+30
  1.0000000E+30  1.0000000E+30  1.0000000E+30  1.0000000E+30  1.0000000E+30
  1.0000000E+30  1.0000000E+30  1.0000000E+30  1.0000000E+30  1.0000000E+30
  1.0000000E+30  1.0000000E+30  1.0000000E+30  1.0000000E+30  1.0000000E+30
  1.0000000E+30  1.0000000E+30  1.0000000E+30  1.0000000E+30  1.0000000E+30
  1.0000000E+30  1.0000000E+30  1.0000000E+30  1.0000000E+30  1.0000000E+30
  1.0000000E+30  1.0000000E+30  1.0000000E+30  1.0000000E+30  1.0000000E+30
  1.0000000E+30  1.0000000E+30  1.0000000E+30  1.0000000E+30  1.0000000E+30
  1.0000000E+30  1.0000000E+30  1.0000000E+30  1.0000000E+30  1.0000000E+30
  1.0000000E+30   6.709053       3.248779      0.6107025      0.3265839    
   1.172455       1.260361       3.000000       3.000000       1.860855    
   3.000000       3.000000       2.923470       3.756630       3.694916    
   4.454803       5.364731       1.129974       3.805603       6.429840    
  0.7056885       1.123840       1.045433      0.1132889      0.3931351    
  0.5009995       3.000000       3.000000       2.877396      0.9397354    
   2.164345       5.579247       5.755951       4.230751       4.124359    
   1.361946      1.0000000E+30  1.0000000E+30  1.0000000E+30  1.0000000E+30
  1.0000000E+30  1.0000000E+30  1.0000000E+30  1.0000000E+30  1.0000000E+30
  1.0000000E+30  1.0000000E+30  1.0000000E+30  1.0000000E+30  1.0000000E+30
  1.0000000E+30  1.0000000E+30  1.0000000E+30  1.0000000E+30  1.0000000E+30
  1.0000000E+30  1.0000000E+30  1.0000000E+30  1.0000000E+30  1.0000000E+30
  1.0000000E+30  1.0000000E+30  1.0000000E+30  1.0000000E+30  1.0000000E+30
  1.0000000E+30  1.0000000E+30  1.0000000E+30  1.0000000E+30  1.0000000E+30
  1.0000000E+30  1.0000000E+30  1.0000000E+30  1.0000000E+30  1.0000000E+30
  1.0000000E+30  1.0000000E+30  1.0000000E+30  1.0000000E+30  1.0000000E+30
  1.0000000E+30  1.0000000E+30  1.0000000E+30  1.0000000E+30  1.0000000E+30
  1.0000000E+30  1.0000000E+30  1.0000000E+30  1.0000000E+30  1.0000000E+30
  1.0000000E+30  1.0000000E+30  1.0000000E+30  1.0000000E+30  1.0000000E+30
  1.0000000E+30  1.0000000E+30  1.0000000E+30  1.0000000E+30  1.0000000E+30
  1.0000000E+30  1.0000000E+30  1.0000000E+30  1.0000000E+30  1.0000000E+30
  1.0000000E+30  1.0000000E+30  1.0000000E+30  1.0000000E+30  1.0000000E+30
  1.0000000E+30  1.0000000E+30  1.0000000E+30  1.0000000E+30  1.0000000E+30
  1.0000000E+30  1.0000000E+30  1.0000000E+30  1.0000000E+30  1.0000000E+30
  1.0000000E+30  1.0000000E+30  1.0000000E+30  1.0000000E+30  1.0000000E+30
  1.0000000E+30  1.0000000E+30  1.0000000E+30  1.0000000E+30  1.0000000E+30
  1.0000000E+30  1.0000000E+30  1.0000000E+30  1.0000000E+30  1.0000000E+30
  1.0000000E+30  1.0000000E+30   7.142189       7.631195       2.964828    
   1.032791      9.4070435E-02   1.157646       3.334122       3.000000    
   1.212250       2.784973       3.000000      0.9066467       2.639755    
   3.030922      0.8863525       6.154984       5.762260       3.674408    
   7.485359       5.083405       3.489777       3.874428       2.078972    
  0.1549988      0.1484528       2.296379       3.000000       2.247803    
   1.345963      0.4827271       7.609779       4.388596       7.360901    
   6.900795       2.014648       2.112686       1.710579      1.0000000E+30
  1.0000000E+30  1.0000000E+30  1.0000000E+30  1.0000000E+30  1.0000000E+30
  1.0000000E+30  1.0000000E+30  1.0000000E+30  1.0000000E+30  1.0000000E+30
  1.0000000E+30  1.0000000E+30  1.0000000E+30  1.0000000E+30  1.0000000E+30
  1.0000000E+30  1.0000000E+30  1.0000000E+30  1.0000000E+30  1.0000000E+30
  1.0000000E+30  1.0000000E+30  1.0000000E+30  1.0000000E+30  1.0000000E+30
  1.0000000E+30  1.0000000E+30  1.0000000E+30  1.0000000E+30  1.0000000E+30
  1.0000000E+30  1.0000000E+30  1.0000000E+30  1.0000000E+30  1.0000000E+30
  1.0000000E+30  1.0000000E+30  1.0000000E+30  1.0000000E+30  1.0000000E+30
  1.0000000E+30  1.0000000E+30  1.0000000E+30  1.0000000E+30  1.0000000E+30
  1.0000000E+30  1.0000000E+30  1.0000000E+30  1.0000000E+30  1.0000000E+30
  1.0000000E+30  1.0000000E+30  1.0000000E+30  1.0000000E+30  1.0000000E+30
  1.0000000E+30  1.0000000E+30  1.0000000E+30  1.0000000E+30  1.0000000E+30
  1.0000000E+30  1.0000000E+30  1.0000000E+30  1.0000000E+30  1.0000000E+30
  1.0000000E+30  1.0000000E+30  1.0000000E+30  1.0000000E+30  1.0000000E+30
  1.0000000E+30  1.0000000E+30  1.0000000E+30  1.0000000E+30  1.0000000E+30
  1.0000000E+30  1.0000000E+30  1.0000000E+30  1.0000000E+30  1.0000000E+30
  1.0000000E+30  1.0000000E+30  1.0000000E+30  1.0000000E+30  1.0000000E+30
  1.0000000E+30  1.0000000E+30  1.0000000E+30  1.0000000E+30  1.0000000E+30
  1.0000000E+30  1.0000000E+30  1.0000000E+30  1.0000000E+30  1.0000000E+30
  1.0000000E+30  1.0000000E+30  1.0000000E+30   5.981453       8.209854    
   5.296104       4.356766       5.118019       3.809486       4.386192    
   3.000000       2.980377       3.721817       3.000000       3.000000    
   2.945328       1.105164       2.231812       1.611916       7.169258    
   4.301529       1.980507       6.907387       4.085800       1.668289    
   4.621674       3.425835      0.6164627      0.5527802       3.000000    
   3.000000      0.5852127      0.6839981       4.734581       6.216415    
   6.185516       3.537750       1.482658       5.489449       5.097252    
   5.177116       3.416451      1.0000000E+30  1.0000000E+30  1.0000000E+30
   3.051689      1.0000000E+30  1.0000000E+30  1.0000000E+30  1.0000000E+30
  1.0000000E+30  1.0000000E+30  1.0000000E+30  1.0000000E+30  1.0000000E+30
  1.0000000E+30  1.0000000E+30  1.0000000E+30  1.0000000E+30  1.0000000E+30
  1.0000000E+30  1.0000000E+30  1.0000000E+30  1.0000000E+30  1.0000000E+30
  1.0000000E+30  1.0000000E+30  1.0000000E+30  1.0000000E+30  1.0000000E+30
  1.0000000E+30  1.0000000E+30  1.0000000E+30  1.0000000E+30  1.0000000E+30
  1.0000000E+30  1.0000000E+30  1.0000000E+30  1.0000000E+30  1.0000000E+30
  1.0000000E+30  1.0000000E+30  1.0000000E+30  1.0000000E+30  1.0000000E+30
  1.0000000E+30  1.0000000E+30  1.0000000E+30  1.0000000E+30  1.0000000E+30
  1.0000000E+30  1.0000000E+30  1.0000000E+30  1.0000000E+30  1.0000000E+30
  1.0000000E+30  1.0000000E+30  1.0000000E+30  1.0000000E+30  1.0000000E+30
  1.0000000E+30  1.0000000E+30  1.0000000E+30  1.0000000E+30  1.0000000E+30
  1.0000000E+30  1.0000000E+30  1.0000000E+30  1.0000000E+30  1.0000000E+30
  1.0000000E+30  1.0000000E+30  1.0000000E+30  1.0000000E+30  1.0000000E+30
  1.0000000E+30  1.0000000E+30  1.0000000E+30  1.0000000E+30  1.0000000E+30
  1.0000000E+30  1.0000000E+30  1.0000000E+30  1.0000000E+30  1.0000000E+30
  1.0000000E+30  1.0000000E+30  1.0000000E+30  1.0000000E+30  1.0000000E+30
  1.0000000E+30  1.0000000E+30  1.0000000E+30  1.0000000E+30  1.0000000E+30
  1.0000000E+30  1.0000000E+30  1.0000000E+30  1.0000000E+30   6.808189    
   9.215088       6.696686       4.650673       7.063095       9.320480    
   5.446198       2.118591       3.000000       2.617561       3.000000    
   1.743347      0.7488556       3.782822       2.525444       1.381813    
   3.922424       5.000000       2.566765       4.693542       2.936600    
   1.351196       2.540489       5.325157       3.436165       1.240036    
   3.904900       3.000000       1.011284      0.8124695       3.558334    
   5.000000       1.100159      0.2072678       2.733719       7.591286    
   5.507942       3.445396       2.194794       1.866821       3.181633    
   3.843475       4.257103      0.9858551      1.0000000E+30  1.0000000E+30
   6.377853       5.187088      0.5783157       1.551094       3.900497    
   2.524956      1.0000000E+30  1.0000000E+30  1.0000000E+30  1.0000000E+30
  1.0000000E+30  1.0000000E+30  1.0000000E+30  1.0000000E+30  1.0000000E+30
  1.0000000E+30  1.0000000E+30  1.0000000E+30  1.0000000E+30  1.0000000E+30
  1.0000000E+30  1.0000000E+30  1.0000000E+30  1.0000000E+30  1.0000000E+30
  1.0000000E+30  1.0000000E+30  1.0000000E+30  1.0000000E+30  1.0000000E+30
  1.0000000E+30  1.0000000E+30  1.0000000E+30  1.0000000E+30  1.0000000E+30
  1.0000000E+30  1.0000000E+30  1.0000000E+30  1.0000000E+30  1.0000000E+30
  1.0000000E+30  1.0000000E+30  1.0000000E+30  1.0000000E+30  1.0000000E+30
  1.0000000E+30  1.0000000E+30  1.0000000E+30  1.0000000E+30  1.0000000E+30
  1.0000000E+30  1.0000000E+30  1.0000000E+30  1.0000000E+30  1.0000000E+30
  1.0000000E+30  1.0000000E+30  1.0000000E+30  1.0000000E+30  1.0000000E+30
  1.0000000E+30  1.0000000E+30  1.0000000E+30  1.0000000E+30  1.0000000E+30
  1.0000000E+30  1.0000000E+30  1.0000000E+30  1.0000000E+30  1.0000000E+30
  1.0000000E+30  1.0000000E+30  1.0000000E+30  1.0000000E+30  1.0000000E+30
  1.0000000E+30  1.0000000E+30  1.0000000E+30  1.0000000E+30  1.0000000E+30
  1.0000000E+30  1.0000000E+30  1.0000000E+30  1.0000000E+30  1.0000000E+30
  1.0000000E+30  1.0000000E+30  1.0000000E+30  1.0000000E+30  1.0000000E+30
   9.063309       8.435593       3.675743       3.857452       5.335747    
   4.078003       1.536423       1.666275       2.913429       3.000000    
   3.000000       2.148033       4.924484       2.615379       1.507301    