 .Sol file Watershed HRU:58 Subbasin:9 HRU:5 Luse:ORAN Soil: D-SS-36 Slope: 0-20.0 11/4/2024 12:00:00 AM ArcSWAT 2012.10_8.26
 Soil Name: D-SS-36
 Soil Hydrologic Group: D
 Maximum rooting depth(mm) : 1000.00
 Porosity fraction from which anions are excluded: 0.500
 Crack volume potential of soil: 0.500
 Texture 1                : CLAY_LOAM
 Depth                [mm]:      300.00     1000.00
 Bulk Density Moist [g/cc]:        1.40        1.50
 Ave. AW Incl. Rock Frag  :        0.12        0.12
 Ksat. (est.)      [mm/hr]:        4.44        2.99
 Organic Carbon [weight %]:        0.70        0.40
 Clay           [weight %]:       37.00       44.00
 Silt           [weight %]:       30.00       28.00
 Sand           [weight %]:       33.00       28.00
 Rock Fragments   [vol. %]:        0.00        0.00
 Soil Albedo (Moist)      :        0.13        0.23
 Erosion K                :        0.23        0.23
 Salinity (EC, Form 5)    :        0.00        0.00
 Soil pH                  :        0.00        0.00
 Soil CACO3               :        0.00        0.00
                              
