 .Sol file Watershed HRU:34 Subbasin:6 HRU:4 Luse:WWHT Soil: Re1-1-2a-231 Slope: 0-20.0 11/4/2024 12:00:00 AM ArcSWAT 2012.10_8.26
 Soil Name: Re1-1-2a-231
 Soil Hydrologic Group: C
 Maximum rooting depth(mm) : 1000.00
 Porosity fraction from which anions are excluded: 0.500
 Crack volume potential of soil: 0.500
 Texture 1                : SANDY_LOAM
 Depth                [mm]:      300.00     1000.00
 Bulk Density Moist [g/cc]:        1.40        1.20
 Ave. AW Incl. Rock Frag  :        0.15        0.15
 Ksat. (est.)      [mm/hr]:       21.25       44.14
 Organic Carbon [weight %]:        0.60        0.60
 Clay           [weight %]:       15.00       15.00
 Silt           [weight %]:       19.00       17.00
 Sand           [weight %]:       66.00       67.00
 Rock Fragments   [vol. %]:        0.00        0.00
 Soil Albedo (Moist)      :        0.15        0.15
 Erosion K                :        0.30        0.30
 Salinity (EC, Form 5)    :        0.00        0.00
 Soil pH                  :        0.00        0.00
 Soil CACO3               :        0.00        0.00
                              
