 .Sol file Watershed HRU:112 Subbasin:16 HRU:5 Luse:COTP Soil: Zg9-3a-383 Slope: 0-20.0 11/4/2024 12:00:00 AM ArcSWAT 2012.10_8.26
 Soil Name: Zg9-3a-383
 Soil Hydrologic Group: D
 Maximum rooting depth(mm) : 1000.00
 Porosity fraction from which anions are excluded: 0.500
 Crack volume potential of soil: 0.500
 Texture 1                : CLAY
 Depth                [mm]:      300.00     1000.00
 Bulk Density Moist [g/cc]:        1.60        1.60
 Ave. AW Incl. Rock Frag  :        0.18        0.18
 Ksat. (est.)      [mm/hr]:        2.17        2.18
 Organic Carbon [weight %]:        1.00        0.60
 Clay           [weight %]:       43.00       44.00
 Silt           [weight %]:       21.00       21.00
 Sand           [weight %]:       36.00       35.00
 Rock Fragments   [vol. %]:        0.00        0.00
 Soil Albedo (Moist)      :        0.07        0.15
 Erosion K                :        0.22        0.22
 Salinity (EC, Form 5)    :        0.00        0.00
 Soil pH                  :        0.00        0.00
 Soil CACO3               :        0.00        0.00
                              
