 .Sol file Watershed HRU:80 Subbasin:12 HRU:2 Luse:ORAN Soil: Jc26-2-3a-106 Slope: 0-20.0 11/4/2024 12:00:00 AM ArcSWAT 2012.10_8.26
 Soil Name: Jc26-2-3a-106
 Soil Hydrologic Group: D
 Maximum rooting depth(mm) : 1000.00
 Porosity fraction from which anions are excluded: 0.500
 Crack volume potential of soil: 0.500
 Texture 1                : CLAY_LOAM
 Depth                [mm]:      300.00     1000.00
 Bulk Density Moist [g/cc]:        1.30        1.40
 Ave. AW Incl. Rock Frag  :        0.00        0.00
 Ksat. (est.)      [mm/hr]:        7.20        4.24
 Organic Carbon [weight %]:        1.20        0.50
 Clay           [weight %]:       28.00       28.00
 Silt           [weight %]:       37.00       37.00
 Sand           [weight %]:       35.00       34.00
 Rock Fragments   [vol. %]:        0.00        0.00
 Soil Albedo (Moist)      :        0.05        0.19
 Erosion K                :        0.33        0.33
 Salinity (EC, Form 5)    :        0.00        0.00
 Soil pH                  :        0.00        0.00
 Soil CACO3               :        0.00        0.00
                              
